----------------------------------------
--3 laye，2 sandbody，1shale，case on 8 well district Es32 zone
--low permerable reservoir, waterflooding

----------------------------------------
--------------------
RUNSPEC
--------------------
TITLE  
   KL10-1-1 OIL FIELD SIMULATION /  

MESSAGES
  8*  150000  8000  1/

CART

DIMENS
--NX   NY  NZ

  57  57  3 /


--ENDSCALE
--'NODIR'     'REVERS'           1    20  /


OIL

WATER

GAS

DISGAS

METRIC

FMTOUT



WELLDIMS
--NWMAXZ  NCWMAX  NGMAXZ  NWGMAX
--max well/  max z/  max plat /max well 
   100     3000      25     100 / 
 
TABDIMS
--NTSFUN NTPVT NSSFUN NPPVT NTFIP NRPVT NOUSE NTENDP
     1     1     20     20    20     20    /

EQLDIMS
--NTEQUL  NDPRVD  NDRXVD  NTTRVD  NSTRVD
 1 /

REGDIMS
 20   2/  

--AQUDIMS
-- num  max     max  max  no   max
-- aqu conn   table  row anal blocks
--lines num aq --carter-- aqu conn
--  1    10000      3    4     5    5000 
--/

START
 1  'JAN'  2011  /

NSTACK
50   /
------------------------------------------------------------------
--------------------
GRID
--------------------
INIT
NOECHO

DX
9747*20/

DY
9747*20/

DZ
3249*4.7
3249*93.5   
3249*19.2  
/

TOPS
3249*2600 /

ACTNUM



3249*1
3249*0   
3249*1  
/

PORO
3249*0.215
3249*0.0000001
3249*0.188
/


PERMX
3249*19.3
3249*0.0000001
3249*6.79 
/

COPY
PERMX PERMY /
PERMX PERMZ /
/

MULTIPLY
PERMZ 0.01 /
/
------------------------------------------------------------------                                              
--------------------------------------------      
PROPS                                             
--------------------------------------------     
FILLEPS
GRAVITY                                            
--OIL   WATER  GAS                                 
  30.4  1.018  0.886  /                            
/     


PVTW                                                                    
--Pref   Bw      Cw       Vw     Vc                                     
260 	1.0367 	3.3471E-06	0.2386 	7.80284E-05  
/ 

PVDG                              
--PRES       Bg           Vg (DST.2)         
1.10000 	13.38176 	0.01215 
26.02143 	0.51928 	0.01217 
50.94286 	0.24191 	0.01221 
85.81026 	0.12665 	0.01229 
100.78571 	0.10322 	0.01234 
125.70714 	0.07914 	0.01242 
150.62857 	0.06569 	0.01250 
175.55000 	0.05779 	0.01257 
200.47143 	0.05279 	0.01263 
225.39286 	0.04938 	0.01267 
260.00000 	0.04610 	0.01272 
275.23571 	0.04500 	0.01274 
300.15714 	0.04349 	0.01277 
325.07857 	0.04225 	0.01280 
350.00000 	0.04121 	0.01282 
/     

PVTO
-- 
-- Live Oil PVT Properties (Dissolved Gas)
-- Rs   Pbub     volume factor       oil viscosity
     8.29952209263036 26.0214285714286 1.11861127553821 1.83344404436622
               50.9428571428572 1.10489960971892 1.91532802827561
               85.8102577853162 1.10145308921912 2.01060758542607
               100.785714285714 1.10070629691839 2.05297142518893
               125.707142857143 1.09985856727963 2.12545921033902
               150.628571428571 1.09929171521299 2.20050644611346
                  175.55 1.09888598555945 2.27820350342763
               200.471428571429 1.09858123028487 2.35864394407792
               225.392857142857 1.09834392644023 2.4419246334076
                     260 1.09808989961249 2.56247142970772
               275.235714285714 1.09799833162194 2.61741144119537
               300.157142857143 1.09786860333079 2.7098288786087
               325.078571428572 1.09775877768626 2.8055094570795
                     350 1.09766460086111 2.90456839392886 /
     25.9087415056621 50.9428571428572 1.1747195511366 1.33740671106613
               85.8102577853162 1.16289678599398 1.40374215704755
               100.785714285714 1.16033360147451 1.43331924023404
               125.707142857143 1.15742871908379 1.48392790232393
               150.628571428571 1.15548912161776 1.53632349129419
                  175.55 1.15410221980396 1.59056910123867
               200.471428571429 1.15306123633625 1.64673005402268
               225.392857142857 1.15225110405125 1.70487397794272
                     260 1.15138431810904 1.78903591043023
               275.235714285714 1.15107198216851 1.82739327603101
               300.157142857143 1.15062958294627 1.89191618636108
               325.078571428572 1.15025514776328 1.95871731781194
                     350 1.14993413226364 2.02787711144631 /
     50.7940352935212 85.8102577853162 1.25807153869713 1.09150797801615
               100.785714285714 1.2537768655267 1.1080244344586
               125.707142857143 1.24670490343562 1.14714735461259
               150.628571428571 1.24199533533287 1.18765165484609
                  175.55 1.23863386163545 1.22958610991612
               200.471428571429 1.23611413263145 1.27300121675373
               225.392857142857 1.23415516212123 1.31794925527178
                     260 1.2320611138264 1.38301046077976
               275.235714285714 1.23130703389588 1.41266254186129
               300.157142857143 1.23023937909978 1.4625418424534
               325.078571428572 1.22933614683816 1.51418231710785
                     350 1.22856207045667 1.56764615061955 / 
/             
                                                                                                                                        
--PMAX                                                                
--400.0 /                                                           

ROCK
--Pref   CR        
  260  9.13E-06  
/                       
/


SWOF                                    
--Sw        Krw	           Kro	      Pc   
0.3860  0.000  1.000  1*                
0.4000  0.005  0.930  1*                
0.4500  0.170  0.525  1*                
0.4800  0.280  0.330  1*                
0.5200  0.370  0.229  1*                
0.6040  0.501  0.141  1*                
0.6349  0.536  0.102  1*                
0.6578  0.580  0.072  1*                
0.6684  0.603  0.064  1*                
0.6792  0.628  0.053  1*                
0.6945  0.667  0.043  1*                
0.7098  0.711  0.034  1*                
0.7208  0.745  0.024  1*                
0.7362  0.798  0.000  1*                
/                                       

SGOF
--Sg	    Krg	    Kro   	Pc (bar)
0	0	1                  1*
0.0614	0.0005	0.729  1*
0.1228	0.004	0.512    1*
0.1842	0.0135	0.343  1*
0.2456	0.032	0.216    1*
0.307	0.0625	0.125    1*
0.3684	0.108	0.064    1*
0.4298	0.1715	0.027  1*
0.4912	0.256	0.008    1*
0.5526	0.3645	0.001  1*
0.614	0.6	0            1*                     
/  

------------------------------------------------------------------

-------------------
REGIONS
-------------------
FIPNUM
3249*1 
3249*2
3249*3



/ 
--------------------
SOLUTION
--------------------

EQUIL
----DATUM  Pdatum  WOC   Pcwoc  GOC    Pcgoc  RSVD   RVVD   N
2658   260   3000.0   0      2000       0      1      0   -5 
/

RSVD      
2660   37.0  
2730   48.0    
/  

RTEMP                                           
--Specifies a constant reservoir temperature    
116   / 
            
------------------------------------------------------------------
--------------------
SUMMARY
--------------------
FLPR
FLPT
FOE
FOPR
FOPT
FPR
FWCT
FWIR
FWIT
WBHP
 /
WLPR
 /
WLPT
 /
WOPR
 /
WOPT
 /
WWCT
 /
WWIR
 /
WWIT
 /
WWPR
 /
WWPT
 /
GOPR
/
GLPR
/
GWIR
/
GLPT
/
GOPT
/
GWIT
/
GGOR
/
GWCT
/
RPR   
/
BWSAT
20 20 3 /
/
------------------------------------------------------------------
--------------------
SCHEDULE
--------------------

RPTSCHED
'PRES' 'SOIL' 'SWAT' 'RESTART=2' 'FIP=1' 'WELLS=1' 'SUMMARY=1' /
  
RPTSCHED
'RESTART=2' 'FIP=2' 'WELLS=2' 'VFPPROD=1' 'CPU=2' 'WELSPECS' 'FIPTR=2' 
/

RPTRST
PRESSURE RS SWAT SAGS PBPD /
  
DRSDT
0 1* /

-- Number and size (days) of timesteps
TUNING
1 365 /
/
12 1 100 1  10 / 

RPTSCHED     
VWAT /
RPTRST
VISC
/
-- Location of wellhead and pressure gauge
--      Well  Well   Location   BHP    Pref.
--      name  group   I    J   datum   phase
--     -----  ----    -    -   -----   -----
WELSPECS

P1    G1  3      3   1*  LIQ  3*  NO /
P2    G1  3      31  1*  LIQ  3*  NO /    
P3    G1  3      55  1*  LIQ  3*  NO /
P4    G1  31     3   1*  LIQ  3*  NO /
P5    G1  31	   31  1*  LIQ  3*  NO / 
P6    G1  31	   55  1*  LIQ  3*  NO /
P7    G1  55     3   1*  LIQ  3*  NO /
P8    G1  55	   31  1*  LIQ  3*  NO /
P9    G1  55	   55  1*  LIQ  3*  NO /

/         

-- Completion interval
--      Well   Location  Interval  2        TOP  BOTTOM   
--      name    I    J    K1  K2   OTHERS                
--      ----    -    -    --  --   ------                 
COMPDAT
                  
P1    3      3    1 1  OPEN  2*  0.2  1*  0.368 /   
P2    3      31   1 1  OPEN  2*  0.2  1*  0.368 /
P3    3      55   1 1  OPEN  2*  0.2  1*  0.368 /
P4    31     3    1 1  OPEN  2*  0.2  1*  0.368 /
P5    31	   31   1 1  OPEN  2*  0.2  1*  0.368 /
P6    31	   55   1 1  OPEN  2*  0.2  1*  0.368 /
P7    55     3    1 1  OPEN  2*  0.2  1*  0.368 /
P8    55	   31   1 1  OPEN  2*  0.2  1*  0.368 /
P9    55	   55   1 1  OPEN  2*  0.2  1*  0.368 /


              
P1    3      3    3 3  OPEN  2*  0.2  1*  0.368 /
P2    3      31   3 3  OPEN  2*  0.2  1*  0.368 /
P3    3      55   3 3  OPEN  2*  0.2  1*  0.368 /
P4    31     3    3 3  OPEN  2*  0.2  1*  0.368 /
P5    31	   31    3 3  OPEN  2*  0.2  1*  0.368 /
P6    31	   55    3 3  OPEN  2*  0.2  1*  0.368 /
P7    55     3    3 3  OPEN  2*  0.2  1*  0.368 /
P8    55	   31    3 3  OPEN  2*  0.2  1*  0.368 /
P9    55	   55    3 3  OPEN  2*  0.2  1*  0.368 /

/

WCONPROD
P1   OPEN  BHP  5*  220 1*  /                   
P2   OPEN  BHP  5*  220 1*  /                   
P3   OPEN  BHP  5*  220 1*  /                   
P4   OPEN  BHP  5*  220 1*  /                   
P5   OPEN  BHP  5*  220 1*  /                   
P6   OPEN  BHP  5*  220 1*  /                   
P7   OPEN  BHP  5*  220 1*  /                   
P8   OPEN  BHP  5*  220 1*  /                   
P9   OPEN  BHP  5*  220 1*  /                   
                
/                            

-- Location of wellhead and pressure gauge
--      Well  Well   Location   BHP    Pref.
--      name  group   I    J   datum   phase
WELSPECS
INJ1   G1  17  17  1*  WATER  3*  NO /
INJ2   G1  17  45  1*  WATER  3*  NO /
INJ3   G1  45  17  1*  WATER  3*  NO /
INJ4   G1  45  45  1*  WATER  3*  NO /
               
/
-- Completion interval
-- Well   Location  Interval  2   TOP  BOTTOM   
-- name    I    J    K1  K2   OTHERS                              
COMPDAT
INJ1   17  17   1 1 OPEN  2*  0.2  1*  0.368 /
INJ2   17  45   1 1 OPEN  2*  0.2  1*  0.368 /
INJ3   45  17   1 1 OPEN  2*  0.2  1*  0.368 /
INJ4   45  45   1 1 OPEN  2*  0.2  1*  0.368 /

INJ1   17  17   3 3 OPEN  2*  0.2  1*  0.368 /
INJ2   17  45   3 3 OPEN  2*  0.2  1*  0.368 /
INJ3   45  17   3 3 OPEN  2*  0.2  1*  0.368 /
INJ4   45  45   3 3 OPEN  2*  0.2  1*  0.368 /

/

WCONINJE
---- WELL  INJECTION  STATUS  CONTROL  SURFACE  RESERVOIR  BHP 
---- NAME   TYPE      MODE     RATE     RATE  
INJ1  WATER OPEN BHP  2* 280 /
INJ2  WATER OPEN BHP  2* 280 /
INJ3  WATER OPEN BHP  2* 280 /
INJ4  WATER OPEN BHP  2* 280 / --**
                               
/


DATES
2 Jan 2011 /
1 Feb 2011 /
1 Mar 2011 /
1 Apr 2011 /
1 May 2011 /
1 Jun 2011 /
1 Jul 2011 /
1 Aug 2011 /
1 Sep 2011 /
1 Oct 2011 /
1 Nov 2011 /
1 Dec 2011 /

1 Jan 2012 /
1 Feb 2012 /
1 Mar 2012 /
1 Apr 2012 /
1 May 2012 /
1 Jun 2012 /
1 Jul 2012 /
1 Aug 2012 /
1 Sep 2012 /
1 Oct 2012 /
1 Nov 2012 /
1 Dec 2012 /

1 Jan 2013 / 
1 Feb 2013 /
1 Mar 2013 /
1 Apr 2013 /
1 May 2013 /
1 Jun 2013 /
1 Jul 2013 /
1 Aug 2013 /
1 Sep 2013 /
1 Oct 2013 /
1 Nov 2013 /
1 Dec 2013 /

1 Jan 2014 / 
1 Feb 2014 /
1 Mar 2014 /
1 Apr 2014 /
1 May 2014 /
1 Jun 2014 /
1 Jul 2014 /
1 Aug 2014 /
1 Sep 2014 /
1 Oct 2014 /
1 Nov 2014 /
1 Dec 2014 /

1 Jan 2015 / 
1 Feb 2015 /
1 Mar 2015 /
1 Apr 2015 /
1 May 2015 /
1 Jun 2015 /
1 Jul 2015 /
1 Aug 2015 /
1 Sep 2015 /
1 Oct 2015 /
1 Nov 2015 /
1 Dec 2015 /

1 Jan 2016 / 
1 Feb 2016 /
1 Mar 2016 /
1 Apr 2016 /
1 May 2016 /
1 Jun 2016 /
1 Jul 2016 /
1 Aug 2016 /
1 Sep 2016 /
1 Oct 2016 /
1 Nov 2016 /
1 Dec 2016 /

1 Jan 2017 / 
1 Feb 2017 /
1 Mar 2017 /
1 Apr 2017 /
1 May 2017 /
1 Jun 2017 /
1 Jul 2017 /
1 Aug 2017 /
1 Sep 2017 /
1 Oct 2017 /
1 Nov 2017 /
1 Dec 2017 /

1 Jan 2018 / 
1 Feb 2018 /
1 Mar 2018 /
1 Apr 2018 /
1 May 2018 /
1 Jun 2018 /
1 Jul 2018 /
1 Aug 2018 /
1 Sep 2018 /
1 Oct 2018 /
1 Nov 2018 /
1 Dec 2018 /

1 Jan 2019 / 
1 Feb 2019 /
1 Mar 2019 /
1 Apr 2019 /
1 May 2019 /
1 Jun 2019 /
1 Jul 2019 /
1 Aug 2019 /
1 Sep 2019 /
1 Oct 2019 /
1 Nov 2019 /
1 Dec 2019 /

1 Jan 2020 / 
1 Feb 2020 /
1 Mar 2020 /
1 Apr 2020 /
1 May 2020 /
1 Jun 2020 /
1 Jul 2020 /
1 Aug 2020 /
1 Sep 2020 /
1 Oct 2020 /
1 Nov 2020 /
1 Dec 2020 /

1 Jan 2021 / 
1 Feb 2021 /
1 Mar 2021 /
1 Apr 2021 /
1 May 2021 /
1 Jun 2021 /
1 Jul 2021 /
1 Aug 2021 /
1 Sep 2021 /
1 Oct 2021 /
1 Nov 2021 /
1 Dec 2021 /

1 Jan 2022 / 
1 Feb 2022 /
1 Mar 2022 /
1 Apr 2022 /
1 May 2022 /
1 Jun 2022 /
1 Jul 2022 /
1 Aug 2022 /
1 Sep 2022 /
1 Oct 2022 /
1 Nov 2022 /
1 Dec 2022 /

1 Jan 2023 / 
1 Feb 2023 /
1 Mar 2023 /
1 Apr 2023 /
1 May 2023 /
1 Jun 2023 /
1 Jul 2023 /
1 Aug 2023 /
1 Sep 2023 /
1 Oct 2023 /
1 Nov 2023 /
1 Dec 2023 /

1 Jan 2024 / 
1 Feb 2024 /
1 Mar 2024 /
1 Apr 2024 /
1 May 2024 /
1 Jun 2024 /
1 Jul 2024 /
1 Aug 2024 /
1 Sep 2024 /
1 Oct 2024 /
1 Nov 2024 /
1 Dec 2024 /

1 Jan 2025 / 
1 Feb 2025 /
1 Mar 2025 /
1 Apr 2025 /
1 May 2025 /
1 Jun 2025 /
1 Jul 2025 /
1 Aug 2025 /
1 Sep 2025 /
1 Oct 2025 /
1 Nov 2025 /
1 Dec 2025 /

1 Jan 2026 / 
1 Feb 2026 /
1 Mar 2026 /
1 Apr 2026 /
1 May 2026 /
1 Jun 2026 /
1 Jul 2026 /
1 Aug 2026 /
1 Sep 2026 /
1 Oct 2026 /
1 Nov 2026 /
1 Dec 2026 /

1 Jan 2027 / 
1 Feb 2027 /
1 Mar 2027 /
1 Apr 2027 /
1 May 2027 /
1 Jun 2027 /
1 Jul 2027 /
1 Aug 2027 /
1 Sep 2027 /
1 Oct 2027 /
1 Nov 2027 /
1 Dec 2027 /

1 Jan 2028 / 
1 Feb 2028 /
1 Mar 2028 /
1 Apr 2028 /
1 May 2028 /
1 Jun 2028 /
1 Jul 2028 /
1 Aug 2028 /
1 Sep 2028 /
1 Oct 2028 /
1 Nov 2028 /
1 Dec 2028 /

1 Jan 2029 / 
1 Feb 2029 /
1 Mar 2029 /
1 Apr 2029 /
1 May 2029 /
1 Jun 2029 /
1 Jul 2029 /
1 Aug 2029 /
1 Sep 2029 /
1 Oct 2029 /
1 Nov 2029 /
1 Dec 2029 /

1 Jan 2030 / 
1 Feb 2030 /
1 Mar 2030 /
1 Apr 2030 /
1 May 2030 /
1 Jun 2030 /
1 Jul 2030 /
1 Aug 2030 /
1 Sep 2030 /
1 Oct 2030 /
1 Nov 2030 /
1 Dec 2030 /

1 Jan 2031 / 
1 Feb 2031 /
1 Mar 2031 /
1 Apr 2031 /
1 May 2031 /
1 Jun 2031 /
1 Jul 2031 /
1 Aug 2031 /
1 Sep 2031 /
1 Oct 2031 /
1 Nov 2031 /
1 Dec 2031 /

1 Jan 2032 / 
1 Feb 2032 /
1 Mar 2032 /
1 Apr 2032 /
1 May 2032 /
1 Jun 2032 /
1 Jul 2032 /
1 Aug 2032 /
1 Sep 2032 /
1 Oct 2032 /
1 Nov 2032 /
1 Dec 2032 /

1 Jan 2033 / 
1 Feb 2033 /
1 Mar 2033 /
1 Apr 2033 /
1 May 2033 /
1 Jun 2033 /
1 Jul 2033 /
1 Aug 2033 /
1 Sep 2033 /
1 Oct 2033 /
1 Nov 2033 /
1 Dec 2033 /

1 Jan 2034 / 
1 Feb 2034 /
1 Mar 2034 /
1 Apr 2034 /
1 May 2034 /
1 Jun 2034 /
1 Jul 2034 /
1 Aug 2034 /
1 Sep 2034 /
1 Oct 2034 /
1 Nov 2034 /
1 Dec 2034 /
/           

END 
